LTspice 26.0.1 for Windows
Circuit: C:\Users\ASUS\Desktop\Draft1\Draft1.net
Start Time: Fri Apr 17 23:42:56 2026
solver = Normal
Maximum thread count: 16
tnom = 27
temp = 27
method = trap
Instance "M1": Length shorter than recommended for a level 1 MOSFET.
Instance "M2": Length shorter than recommended for a level 1 MOSFET.
Instance "M3": Length shorter than recommended for a level 1 MOSFET.
Instance "M3": Width narrower than recommended for a level 1 MOSFET.
Direct Newton iteration failed to find operating point.
Starting Gmin stepping
Gmin stepping succeeded in finding the operating point.

Changing Tseed to 9.76562e-16
Total elapsed time: 0.290 seconds.

Files loaded:
C:\Users\ASUS\Desktop\Draft1\Draft1.net
C:\Users\ASUS\AppData\Local\LTspice\lib\cmp\standard.mos
C:\Users\ASUS\AppData\Local\LTspice\lib\sub\UniversalOpAmp2.lib

